Circuit: * D:\hardware\SoundControl\Simulation\Led_and_Poti.asc

Direct Newton iteration for .op point succeeded.

Date: Tue Feb 13 13:14:08 2024
Total elapsed time: 0.071 seconds.

tnom = 27
temp = 27
method = modified trap
totiter = 2141
traniter = 2111
tranpoints = 1052
accept = 1052
rejected = 0
matrix size = 22
fillins = 0
solver = Normal
Matrix Compiler1: 702 bytes object code size  0.2/0.2/[0.1]
Matrix Compiler2: 1.42 KB object code size  0.2/0.2/[0.1]

