Circuit: * D:\hardware\Pico_VGA_Board\Simulation\Draft2.asc

Direct Newton iteration for .op point succeeded.

Date: Sun Feb 11 15:53:00 2024
Total elapsed time: 0.094 seconds.

tnom = 27
temp = 27
method = modified trap
totiter = 2117
traniter = 2106
tranpoints = 1052
accept = 1052
rejected = 0
matrix size = 6
fillins = 0
solver = Normal
Matrix Compiler1: 164 bytes object code size  0.1/0.0/[0.0]
Matrix Compiler2: off  [0.1]/0.1/0.1

