Circuit: * D:\hardware\Pico_VGA_Board\Simulation\Draft1.asc

.OP point found by inspection.

Date: Mon Nov 06 18:58:40 2023
Total elapsed time: 0.020 seconds.

tnom = 27
temp = 27
method = modified trap
totiter = 2116
traniter = 2116
tranpoints = 1059
accept = 1056
rejected = 3
matrix size = 3
fillins = 0
solver = Normal
Matrix Compiler1: 86 bytes object code size  0.0/0.0/[0.0]
Matrix Compiler2: off  [0.0]/0.0/0.0

