Circuit: * D:\hardware\Pico_VGA_Board\Simulation\PWM_Audio.asc

Direct Newton iteration for .op point succeeded.

Date: Fri Aug 11 22:29:39 2023
Total elapsed time: 0.540 seconds.

tnom = 27
temp = 27
method = modified trap
totiter = 224588
traniter = 224584
tranpoints = 91318
accept = 70688
rejected = 20630
matrix size = 10
fillins = 0
solver = Normal
Matrix Compiler1: 310 bytes object code size  0.1/0.1/[0.1]
Matrix Compiler2: off  [0.1]/0.1/0.1

