Circuit: * D:\hardware\Pico_VGA_Board\Simulation\PWM_Audio.asc

Direct Newton iteration for .op point succeeded.

Date: Sun Aug 13 17:55:00 2023
Total elapsed time: 1.109 seconds.

tnom = 27
temp = 27
method = modified trap
totiter = 346110
traniter = 346106
tranpoints = 142564
accept = 112177
rejected = 30387
matrix size = 9
fillins = 0
solver = Normal
Matrix Compiler1: 260 bytes object code size  0.1/0.1/[0.1]
Matrix Compiler2: off  [0.1]/0.1/0.1

